LTspice 26.0.1 for Windows
Circuit: C:\Users\omgup\OneDrive\Desktop\cmos\iv\tmp3.cir
Start Time: Tue Jan 20 14:55:10 2026
solver = Normal
Maximum thread count: 12
tnom = 27
temp = 27
method = trap
Instance "M1": Length shorter than recommended for a level 1 MOSFET.
Instance "M1": Width narrower than recommended for a level 1 MOSFET.
.step w=1.2e-07
.step w=2.4e-07
.step w=3.6e-07
.step w=4.8e-07
Total elapsed time: 0.256 seconds.

Files loaded:
C:\Users\omgup\OneDrive\Desktop\cmos\iv\tmp3.cir

