LTspice 26.0.1 for Windows
Circuit: C:\Users\omgup\OneDrive\Desktop\cmos\iv\tmp3.cir
Start Time: Tue Jan 20 13:59:17 2026
solver = Normal
Maximum thread count: 12
tnom = 27
temp = 27
method = trap
Instance "M1": Length shorter than recommended for a level 1 MOSFET.
Instance "M1": Width narrower than recommended for a level 1 MOSFET.
.step v=0.2
.step v=0.4
Total elapsed time: 0.082 seconds.

Files loaded:
C:\Users\omgup\OneDrive\Desktop\cmos\iv\tmp3.cir

