LTspice 26.0.1 for Windows
Circuit: C:\Users\omgup\OneDrive\Desktop\cmos\iv\tmp3.cir
Start Time: Mon Jan 19 22:50:41 2026
solver = Normal
Maximum thread count: 12
tnom = 27
temp = 27
method = trap
Instance "M1": Length shorter than recommended for a level 1 MOSFET.
Instance "M1": Width narrower than recommended for a level 1 MOSFET.
.step Vgs=0 
.step Vgs=0.2 
.step Vgs=0.4 
.step Vgs=0.6 
.step Vgs=0.8 
.step Vgs=1 
.step Vgs=1.2 
.step Vgs=1.4 
.step Vgs=1.6 
.step Vgs=1.8 
Total elapsed time: 0.583 seconds.

Files loaded:
C:\Users\omgup\OneDrive\Desktop\cmos\iv\tmp3.cir

